local jiro = import '../../templates/jiro.libsonnet';

jiro.newJiro("automotive.sumo", "Eclipse SUMO")
